[General]
#; 指定使用的網路模型，此處必須與你在 NED 檔中定義的網路名稱一致
network = videostream.VideoStreamingNetwork

#; 設定仿真運行的總時間（這裡設定為 100 秒，根據需求可調整）
sim-time-limit = 100s